LAMMPS (7 Feb 2024 - Update 1)
# --- Initialization ---
units            real
atom_style       full
boundary         p p f
pair_style       lj/cut/coul/long 10.0 10.0
bond_style       harmonic
angle_style      harmonic
kspace_style     pppm 1.0e-4
kspace_modify    slab 3.0

# --- System Definition ---
read_data        /mnt/c/Users/vbarv/Desktop/course/project/lammps/data/system_flat.data
Reading data file ...
  orthogonal box = (-113.4 -15 -5) to (213.03 186.14394 143.5216)
  reading atoms ...
  39930 atoms
  scanning bonds ...
  scanning angles ...
  reading bonds ...
  17872 bonds
  reading angles ...
  8936 angles
Finding 1-2 1-3 1-4 neighbors ...
     2 = max # of 1-2 neighbors
     1 = max # of 1-3 neighbors
     1 = max # of 1-4 neighbors
     2 = max # of special neighbors

pair_modify      mix arithmetic

# Groups
group            graphene type 3
13122 atoms in group graphene
group            water type 1 2
26808 atoms in group water
group            mobile type 1 2
26808 atoms in group mobile

# Define bottom graphene region (do not fix yet!)
region           bottom_layer block EDGE EDGE EDGE EDGE 0.0 5.0 units box
group            graphene_bottom region bottom_layer
0 atoms in group graphene_bottom
group            fixed_atoms intersect graphene graphene_bottom
0 atoms in group fixed_atoms

# --- Reflective walls ---
fix              zwalls all wall/reflect zlo EDGE zhi EDGE

# --- STEP 1: Energy Minimization WITHOUT graphene fixation ---
print            "Starting energy minimization without fixing graphene..."
Starting energy minimization without fixing graphene...
min_style        cg
minimize         1.0e-6 1.0e-8 10000 100000
PPPM initialization ...
  G vector (1/distance) = 0.21891337
  grid = 96 64 120
  stencil order = 5
  estimated absolute RMS force accuracy = 0.038011677
  estimated relative force accuracy = 0.00011447104
  3d grid and FFT values/proc = 130906 92160
Generated 3 of 3 mixed pair_coeff terms from arithmetic mixing rule
Step          Temp          E_pair         E_mol          TotEng         Press
0   0              3.3833936e+08  41792.211      3.3838115e+08  9541212.8
Loop time of 203.489 on 8 procs for 1220 steps with 39930 atoms

Minimization stats:
  Stopping criterion = energy tolerance
  Energy initial, next-to-last, final =
  Force two-norm initial, final = 2646568.2 54.398725
  Force max component initial, final = 146648.42 10.978587
  Final line search alpha, max atom move = 0.0047323555 0.051954575
  Iterations, force evaluations = 1220 1719

print            "Minimization done."
Minimization done.

# Check results visually and energetically here if needed!

# --- STEP 2: Now fix bottom graphene atoms (safe after minimization) ---
fix              freeze fixed_atoms setforce 0.0 0.0 0.0
print            "Graphene bottom layer fixed."
Graphene bottom layer fixed.

# --- Initial velocities ---
velocity         mobile create 600.0 12345 mom yes rot no dist gaussian

# --- STEP 3: Short NVT equilibration to quickly stabilize system ---
fix              equil mobile nvt temp 300.0 300.0 100.0

thermo           500
thermo_style     custom step temp press pe ke etotal density

timestep         0.5
run              20000  # 10 ps quick equilibration
PPPM initialization ...
  G vector (1/distance) = 0.21891337
  grid = 96 64 120
  stencil order = 5
  estimated absolute RMS force accuracy = 0.038011677
  estimated relative force accuracy = 0.00011447104
  3d grid and FFT values/proc = 130906 92160
Generated 3 of 3 mixed pair_coeff terms from arithmetic mixing rule
Step          Temp          Press          PotEng         KinEng         TotEng        Density
1220   402.82001      218.05292     -122761.43      47943.945     -74817.483      0.054250025
Averages over the last 21 of 42 rows, steps 11500 to 21220:
Temp Press PotEng KinEng TotEng Density
201.024 5.1271 -98026 23926 -74100 0.05425
Loop time of 1802.55 on 8 procs for 20000 steps with 39930 atoms

unfix            equil
print            "Equilibration finished."
Equilibration finished.

# --- STEP 4: NVT Production run (300K) ---
fix              prod mobile nvt temp 300.0 300.0 100.0

dump             traj all atom 2000 trajectory_prod.lammpstrj
dump_modify      traj sort id

run              400000  # 50 ps production run
PPPM initialization ...
  G vector (1/distance) = 0.21891337
  grid = 96 64 120
  stencil order = 5
  estimated absolute RMS force accuracy = 0.038011677
  estimated relative force accuracy = 0.00011447104
  3d grid and FFT values/proc = 130906 92160
Generated 3 of 3 mixed pair_coeff terms from arithmetic mixing rule
Step          Temp          Press          PotEng         KinEng         TotEng        Density
21220   201.40039     -1.9985036     -98142.687      23970.828     -74171.858      0.054250025
Averages over the last 401 of 802 rows, steps 221500 to 421220:
Temp Press PotEng KinEng TotEng Density
201.431 15.4922 -97825.2 23974.5 -73850.7 0.05425
Loop time of 36013.9 on 8 procs for 400000 steps with 39930 atoms

write_data       system_equilibrated_final.data
System init for write_data ...
PPPM initialization ...
  G vector (1/distance) = 0.21891337
  grid = 96 64 120
  stencil order = 5
  estimated absolute RMS force accuracy = 0.038011677
  estimated relative force accuracy = 0.00011447104
  3d grid and FFT values/proc = 130906 92160
Generated 3 of 3 mixed pair_coeff terms from arithmetic mixing rule
write_dump       all xyz final_configuration.xyz modify element O H C

print            "--- Simulation successfully completed ---"
--- Simulation successfully completed ---
